<?xml version="1.0" encoding="UTF-8"?>

<configuration xmlns:xsi="http://www.w3.org/2001/XMLSchema-instance" xsi:noNamespaceSchemaLocation="http://sumo.sf.net/xsd/sumoConfiguration.xsd">

<input>
    <net-file value="net/net.xml"/>
    <route-files value="rou/rou.xml"/>
    <additional-files value="poly/poly.xml"/>
</input>

<time>
    <begin value="0"/>
    <end value="2000"/>
</time>

<report>
    <no-step-log value="true"/>
</report>

<gui_only>
    <start value="true"/>
</gui_only>

</configuration>